.model 2N7002 VDMOS(Rg=3 Vto=1.6 Rd=0 Rs=.75 Rb=.14 Kp=.17 mtriode=1.25 Cgdmax=80p Cgdmin=12p Cgs=50p Cjo=50p Is=.04p mfg=Fairchild Vds=60 Ron=2 Qg=1.5n)
.model NDC7002N VDMOS(Rg=3 Vto=2.2 Rd=.8 Rs=.2 Rb=1 Kp=.4 lambda=.01 Cgdmax=.05n Cgdmin=.02n Cgs=.02n Cjo=.02n Is=2p mfg=Fairchild Vds=50 Ron=2000m Qg=1n)
