.MODEL SS8050 NPN IS=377.21E-15 BF=218.082 NF=1.0409 VAF=32.0909 BF=218.08 NF=1.0409 VAF=32.0909 NF=1.0409 VAF=32.0909 VAF=32.091 IKF=.84522 ISE=5.17224E-11 NE=2.12785 BR=5.45795 ISE=51.722E-12 NE=2.12785 BR=5.45795 NE=2.1279 BR=5.45795 BR=5.4580 NR=1.0619 VAR=49.0994 IKR=2.19792 ISC=5.17224E-11 VAR=49.099 IKR=2.19792 ISC=5.17224E-11 IKR=2.1979 ISC=5.17224E-11 ISC=51.722E-12 NC=3.9685 RB=5.74704 IRB=0.1 RBM=0.1 RE=841.72E-6 RC=0.248242 XTB=0.626944 XTI=1 RB=5.7470 IRB=0.1 RBM=0.1 RC=.24824 XTB=0.626944 XTI=1 CJE=27.335E-12 VJE=0.721406 MJE=0.85 VJE=.72141 MJE=0.85 MJE=.85 CJC=26.000E-12 VJC=0.4 MJC=0.367851 XCJC=0.1 VJC=.4 MJC=0.367851 XCJC=0.1 MJC=.36785 XCJC=0.1 FC=.9999 CJS=0 VJS=0.75 MJS=0.5 TF=643.94E-12 XTF=1.43228 VTF=0.344801 ITF=1.20072 XTF=1.4323 VTF=0.344801 ITF=1.20072 VTF=.3448 ITF=1.20072 ITF=1.2007 TR=100.00E-9 PTF=0 KF=0 AF=1 EG=1.0500 CJE=2.73346E-11 VJE=0.721406 MJE=0.85 XTB=.62694 XTI=1 XTI=1
