version 2
1
2
.dc I1 0 500m 10m{return}.kicad adjustpaths{return}.save all{return}.probe alli
3
1
V(/VIN1)
 
1
V(/VIN2)
 
1
V(/VOUT)
 
